-------------------------------------------------------
          Amber 18 PMEMD                              2018
          -------------------------------------------------------

  [-O]verwriting output

File Assignments:

 Here is the input file:

 pro 1ns LIPID 303K backbone atoms
 &cntrl
   imin=0, ntx=5, irest=1,
   ntc=2, ntf=2, tol=0.0000001,
   nstlim=500000, ntt=3, gamma_ln=1.0,
   temp0=303.0,
   ntpr=5000, ntwr=500000, ntwx=5000,
   dt=0.002, ig=-1,
   ntr=1, ntb=2, cut=10.0, ioutfm=1, ntxo=2,
   ntp=3, csurften=3, gamma_ten=0.0, ninterface=2,
   restraint_wt=5.0, restraintmask=':@CA,C,N'
 /
 /
 &ewald
  skinnb=3.0,
 /

Note: ig = -1. Setting random seed to   184553 based on wallclock time in
      microseconds.

--------------------------------------------------------------------------------
   1.  RESOURCE   USE:
--------------------------------------------------------------------------------

 getting box info from netcdf restart file
 NATOM  =  103511 NTYPES =      23 NBONH =   87252 MBONA  =   16117
 NTHETH =   56081 MTHETA =   19675 NPHIH =   96949 MPHIA  =   67740
 NHPARM =       0 NPARM  =       0 NNB   =  308225 NRES   =   22464
 NBONA  =   16117 NTHETA =   19675 NPHIA =   67740 NUMBND =     112
 NUMANG =     262 NPTRA  =     515 NATYP =      62 NPHB   =       0
 IFBOX  =       1 NMXRS  =      74 IFCAP =       0 NEXTRA =       0
 NCOPY  =       0

     BOX TYPE: RECTILINEAR

--------------------------------------------------------------------------------
   2.  CONTROL  DATA  FOR  THE  RUN
--------------------------------------------------------------------------------

default_name

General flags:
     imin    =       0, nmropt  =       0

Nature and format of input:
     ntx     =       5, irest   =       1, ntrx    =       1

Nature and format of output:
     ntxo    =       2, ntpr    =    5000, ntrx    =       1, ntwr    =  500000
     iwrap   =       0, ntwx    =    5000, ntwv    =       0, ntwe    =       0
     ioutfm  =       1, ntwprt  =       0, idecomp =       0, rbornstat=      0

Potential function:
     ntf     =       2, ntb     =       2, igb     =       0, nsnb    =      25
     ipol    =       0, gbsa    =       0, iesp    =       0
     dielc   =   1.00000, cut     =  10.00000, intdiel =   1.00000

Frozen or restrained atoms:
     ibelly  =       0, ntr     =       1
     restraint_wt =   5.00000

Molecular dynamics:
     nstlim  =    500000, nscm    =         0, nrespa  =         1
     t       =   0.00000, dt      =   0.00200, vlimit  =  -1.00000

Langevin dynamics temperature regulation:
     ig      =  184553
     temp0   = 303.00000, tempi   =   0.00000, gamma_ln=   1.00000

Pressure regulation:
     ntp     =       3
     pres0   =   1.00000, comp    =  44.60000, taup    =   1.00000

Constant surface tension:
     csurften  =       3
     gamma_ten =   0.00000 ninterface =       2

SHAKE:
     ntc     =       2, jfastw  =       0
     tol     =   0.00000

Ewald parameters:
     verbose =       0, ew_type =       0, nbflag  =       1, use_pme =       1
     vdwmeth =       1, eedmeth =       1, netfrc  =       1
     Box X =   93.627   Box Y =   93.799   Box Z =  119.435
     Alpha =   90.000   Beta  =   90.000   Gamma =   90.000
     NFFT1 =   96       NFFT2 =   96       NFFT3 =  128
     Cutoff=   10.000   Tol   =0.100E-04
     Ewald Coefficient =  0.27511
     Interpolation order =    4

    LOADING THE CONSTRAINED ATOMS AS GROUPS

   5.  REFERENCE ATOM COORDINATES

  default_name
     Mask :@CA,C,N; matches     0 atoms

--------------------------------------------------------------------------------
   3.  ATOMIC COORDINATES AND VELOCITIES
--------------------------------------------------------------------------------

default_name
 begin time read from input coords =   105.000 ps

 Number of triangulated 3-point waters found:    21233

     Sum of charges from parm topology file =  -0.00002097
     Forcing neutrality...

--------------------------------------------------------------------------------
   4.  RESULTS
 NSTEP =     5000   TIME(PS) =     115.000  TEMP(K) =   303.51  PRESS =     0.5
 Etot   =   -243968.7242  EKtot   =     67334.3594  EPtot      =   -311303.0836
 BOND   =      5720.4290  ANGLE   =     21319.0747  DIHED      =      8715.4051
 1-4 NB =      5584.7417  1-4 EEL =     -7214.5836  VDWAALS    =     31835.7646
 EELEC  =   -377263.9151  EHBOND  =         0.0000  RESTRAINT  =         0.0000
 EKCMT  =     19625.8660  VIRIAL  =     19615.3515  VOLUME     =   1021746.6591
                                                    SURFTEN    =       -97.8966
                                                    Density    =         1.0071
 ------------------------------------------------------------------------------

      A V E R A G E S   O V E R     100 S T E P S

 NSTEP =   500000   TIME(PS) =    1105.000  TEMP(K) =   303.02  PRESS =    10.2
 Etot   =   -249003.1646  EKtot   =     67225.2855  EPtot      =   -316228.4502
 BOND   =      5669.8346  ANGLE   =     21241.4754  DIHED      =      8064.2739
 1-4 NB =      5524.5942  1-4 EEL =     -7248.9599  VDWAALS    =     30322.8596
 EELEC  =   -379802.5280  EHBOND  =         0.0000  RESTRAINT  =         0.0000
 EKCMT  =     19599.7762  VIRIAL  =     19380.6285  VOLUME     =    993347.7252
                                                    SURFTEN    =        14.3388
                                                    Density    =         1.0359
 ------------------------------------------------------------------------------

      R M S  F L U C T U A T I O N S

 NSTEP =   500000   TIME(PS) =    1105.000  TEMP(K) =     0.86  PRESS =    83.5
 Etot   =      1091.2641  EKtot   =       191.6316  EPtot      =      1036.5344
 BOND   =        58.4678  ANGLE   =       112.0552  DIHED      =       129.2892
 1-4 NB =        33.4327  1-4 EEL =        80.4162  VDWAALS    =       313.6265
 EELEC  =       764.3373  EHBOND  =         0.0000  RESTRAINT  =         0.0000
 EKCMT  =        99.0176  VIRIAL  =      1794.8564  VOLUME     =      4415.5352
                                                    SURFTEN    =       115.7703
                                                    Density    =         0.0045
 ------------------------------------------------------------------------------
