-------------------------------------------------------
          Amber 18 PMEMD                              2018
          -------------------------------------------------------

  [-O]verwriting output

File Assignments:

 Here is the input file:

 pro 1ns LIPID 303K alpha carbons only
 &cntrl
   imin=0, ntx=5, irest=1,
   ntc=2, ntf=2, tol=0.0000001,
   nstlim=500000, ntt=3, gamma_ln=1.0,
   temp0=303.0,
   ntpr=5000, ntwr=500000, ntwx=5000,
   dt=0.002, ig=-1,
   ntr=1, ntb=2, cut=10.0, ioutfm=1, ntxo=2,
   ntp=3, csurften=3, gamma_ten=0.0, ninterface=2,
   restraint_wt=5.0, restraintmask=':@CA'
 /
 /
 &ewald
  skinnb=3.0,
 /

Note: ig = -1. Setting random seed to    28136 based on wallclock time in
      microseconds.

--------------------------------------------------------------------------------
   1.  RESOURCE   USE:
--------------------------------------------------------------------------------

 getting box info from netcdf restart file
 NATOM  =  103511 NTYPES =      23 NBONH =   87252 MBONA  =   16117
 NTHETH =   56081 MTHETA =   19675 NPHIH =   96949 MPHIA  =   67740
 NHPARM =       0 NPARM  =       0 NNB   =  308225 NRES   =   22464
 NBONA  =   16117 NTHETA =   19675 NPHIA =   67740 NUMBND =     112
 NUMANG =     262 NPTRA  =     515 NATYP =      62 NPHB   =       0
 IFBOX  =       1 NMXRS  =      74 IFCAP =       0 NEXTRA =       0
 NCOPY  =       0

     BOX TYPE: RECTILINEAR

--------------------------------------------------------------------------------
   2.  CONTROL  DATA  FOR  THE  RUN
--------------------------------------------------------------------------------

default_name

General flags:
     imin    =       0, nmropt  =       0

Nature and format of input:
     ntx     =       5, irest   =       1, ntrx    =       1

Nature and format of output:
     ntxo    =       2, ntpr    =    5000, ntrx    =       1, ntwr    =  500000
     iwrap   =       0, ntwx    =    5000, ntwv    =       0, ntwe    =       0
     ioutfm  =       1, ntwprt  =       0, idecomp =       0, rbornstat=      0

Potential function:
     ntf     =       2, ntb     =       2, igb     =       0, nsnb    =      25
     ipol    =       0, gbsa    =       0, iesp    =       0
     dielc   =   1.00000, cut     =  10.00000, intdiel =   1.00000

Frozen or restrained atoms:
     ibelly  =       0, ntr     =       1
     restraint_wt =   5.00000

Molecular dynamics:
     nstlim  =    500000, nscm    =         0, nrespa  =         1
     t       =   0.00000, dt      =   0.00200, vlimit  =  -1.00000

Langevin dynamics temperature regulation:
     ig      =   28136
     temp0   = 303.00000, tempi   =   0.00000, gamma_ln=   1.00000

Pressure regulation:
     ntp     =       3
     pres0   =   1.00000, comp    =  44.60000, taup    =   1.00000

Constant surface tension:
     csurften  =       3
     gamma_ten =   0.00000 ninterface =       2

SHAKE:
     ntc     =       2, jfastw  =       0
     tol     =   0.00000

Ewald parameters:
     verbose =       0, ew_type =       0, nbflag  =       1, use_pme =       1
     vdwmeth =       1, eedmeth =       1, netfrc  =       1
     Box X =   92.651   Box Y =   92.821   Box Z =  115.211
     Alpha =   90.000   Beta  =   90.000   Gamma =   90.000
     NFFT1 =   96       NFFT2 =   96       NFFT3 =  120
     Cutoff=   10.000   Tol   =0.100E-04
     Ewald Coefficient =  0.27511
     Interpolation order =    4

    LOADING THE CONSTRAINED ATOMS AS GROUPS

   5.  REFERENCE ATOM COORDINATES

  default_name
     Mask :@CA; matches     0 atoms

--------------------------------------------------------------------------------
   3.  ATOMIC COORDINATES AND VELOCITIES
--------------------------------------------------------------------------------

default_name
 begin time read from input coords =  1105.000 ps

 Number of triangulated 3-point waters found:    21233

     Sum of charges from parm topology file =  -0.00002097
     Forcing neutrality...

--------------------------------------------------------------------------------
   4.  RESULTS
 NSTEP =     5000   TIME(PS) =    1115.000  TEMP(K) =   305.06  PRESS =    92.3
 Etot   =   -249328.9023  EKtot   =     67677.7891  EPtot      =   -317006.6913
 BOND   =      5743.5876  ANGLE   =     21240.9815  DIHED      =      7898.7625
 1-4 NB =      5459.2452  1-4 EEL =     -7231.1301  VDWAALS    =     30403.6973
 EELEC  =   -380521.8353  EHBOND  =         0.0000  RESTRAINT  =         0.0000
 EKCMT  =     19714.3526  VIRIAL  =     17741.4020  VOLUME     =    990268.6334
                                                    SURFTEN    =       200.4700
                                                    Density    =         1.0391
 ------------------------------------------------------------------------------

      A V E R A G E S   O V E R     100 S T E P S

 NSTEP =   500000   TIME(PS) =    2105.000  TEMP(K) =   303.06  PRESS =     2.5
 Etot   =   -250111.8204  EKtot   =     67234.0929  EPtot      =   -317345.9133
 BOND   =      5649.5474  ANGLE   =     21210.7874  DIHED      =      7903.5873
 1-4 NB =      5511.2246  1-4 EEL =     -7349.7210  VDWAALS    =     30462.7244
 EELEC  =   -380734.0635  EHBOND  =         0.0000  RESTRAINT  =         0.0000
 EKCMT  =     19595.0848  VIRIAL  =     19542.5966  VOLUME     =    991314.7110
                                                    SURFTEN    =        11.3844
                                                    Density    =         1.0381
 ------------------------------------------------------------------------------

      R M S  F L U C T U A T I O N S

 NSTEP =   500000   TIME(PS) =    2105.000  TEMP(K) =     0.98  PRESS =    91.5
 Etot   =       401.8159  EKtot   =       217.0682  EPtot      =       301.2037
 BOND   =        57.2510  ANGLE   =       102.8810  DIHED      =        51.6346
 1-4 NB =        34.0514  1-4 EEL =        97.3748  VDWAALS    =       269.8045
 EELEC  =       428.4545  EHBOND  =         0.0000  RESTRAINT  =         0.0000
 EKCMT  =        96.9096  VIRIAL  =      1959.1336  VOLUME     =       794.4511
                                                    SURFTEN    =       117.8624
                                                    Density    =         0.0008
 ------------------------------------------------------------------------------
